
     RDKit          2D

 16 18  0  0  0  0  0  0  0  0999 V2000
   -0.9604    0.5549    0.0000 C   0  0  0  0  0  0  0  0  0  0  0  0
   -1.8264    0.0548    0.0000 C   0  0  0  0  0  0  0  0  0  0  0  0
   -1.9309   -0.9397    0.0000 N   0  0  0  0  0  0  0  0  0  0  0  0
   -2.9090   -1.1476    0.0000 C   0  0  0  0  0  0  0  0  0  0  0  0
   -3.4089   -0.2815    0.0000 C   0  0  0  0  0  0  0  0  0  0  0  0
   -2.7400    0.4615    0.0000 O   0  0  0  0  0  0  0  0  0  0  0  0
   -0.0944    0.0549    0.0000 N   0  0  0  0  0  0  0  0  0  0  0  0
    0.7716    0.5550    0.0000 C   0  0  0  0  0  0  0  0  0  0  0  0
    1.6378    0.0551    0.0000 C   0  0  0  0  0  0  0  0  0  0  0  0
    1.7427   -0.9393    0.0000 N   0  0  0  0  0  0  0  0  0  0  0  0
    2.7210   -1.1469    0.0000 C   0  0  0  0  0  0  0  0  0  0  0  0
    3.2206   -0.2808    0.0000 C   0  0  0  0  0  0  0  0  0  0  0  0
    2.5512    0.4621    0.0000 O   0  0  0  0  0  0  0  0  0  0  0  0
    0.7716    1.5550    0.0000 C   0  0  0  0  0  0  0  0  0  0  0  0
   -0.0944    2.0549    0.0000 C   0  0  0  0  0  0  0  0  0  0  0  0
   -0.9604    1.5549    0.0000 C   0  0  0  0  0  0  0  0  0  0  0  0
  1  2  1  0
  2  3  2  0
  3  4  1  0
  4  5  1  0
  5  6  1  0
  1  7  2  0
  7  8  1  0
  8  9  1  0
  9 10  2  0
 10 11  1  0
 11 12  1  0
 12 13  1  0
  8 14  2  0
 14 15  1  0
 15 16  2  0
 16  1  1  0
  6  2  1  0
 13  9  1  0
M  END
