
     RDKit          2D

 13 14  0  0  0  0  0  0  0  0999 V2000
    1.3856    0.4618    0.0000 C   0  0  0  0  0  0  0  0  0  0  0  0
    0.0000    1.2618    0.0000 C   0  0  0  0  0  0  0  0  0  0  0  0
   -1.3856    0.4618    0.0000 C   0  0  0  0  0  0  0  0  0  0  0  0
   -1.5424   -1.0300    0.0000 N   0  0  0  0  0  0  0  0  0  0  0  0
   -3.0097   -1.3418    0.0000 C   0  0  0  0  0  0  0  0  0  0  0  0
   -3.7597   -0.0428    0.0000 C   0  0  0  0  0  0  0  0  0  0  0  0
   -2.7560    1.0719    0.0000 O   0  0  0  0  0  0  0  0  0  0  0  0
    1.5424   -1.0301    0.0000 N   0  0  0  0  0  0  0  0  0  0  0  0
    3.0096   -1.3420    0.0000 C   0  0  0  0  0  0  0  0  0  0  0  0
    3.7596   -0.0430    0.0000 C   0  0  0  0  0  0  0  0  0  0  0  0
    2.7560    1.0719    0.0000 O   0  0  0  0  0  0  0  0  0  0  0  0
  1  2  6  0
  2  3  6  0
  3  4  6  0
  4  5  6  0
  5  6  6  0
  5  7  6  0
  5  8  6  0
  8  9  2  0
  9 10  6  0
 10 11  6  0
 11 12  6  0
  4 13  2  0
 13  1  6  0
 12  8  6  0
V    1 C
V    2 C
V    3 O
V    4 C
V    5 C
V    6 *
V    7 *
V    8 C
V    9 N
V   10 C
V   11 C
V   12 O
V   13 N
M  END