
     RDKit          2D

 11 12  0  0  0  0  0  0  0  0999 V2000
    1.3856    0.4618    0.0000 C   0  0  0  0  0  0  0  0  0  0  0  0
    0.0000    1.2618    0.0000 C   0  0  0  0  0  0  0  0  0  0  0  0
   -1.3856    0.4618    0.0000 C   0  0  0  0  0  0  0  0  0  0  0  0
   -1.5424   -1.0300    0.0000 N   0  0  0  0  0  0  0  0  0  0  0  0
   -3.0097   -1.3418    0.0000 C   0  0  0  0  0  0  0  0  0  0  0  0
   -3.7597   -0.0428    0.0000 C   0  0  0  0  0  0  0  0  0  0  0  0
   -2.7560    1.0719    0.0000 O   0  0  0  0  0  0  0  0  0  0  0  0
    1.5424   -1.0301    0.0000 N   0  0  0  0  0  0  0  0  0  0  0  0
    3.0096   -1.3420    0.0000 C   0  0  0  0  0  0  0  0  0  0  0  0
    3.7596   -0.0430    0.0000 C   0  0  0  0  0  0  0  0  0  0  0  0
    2.7560    1.0719    0.0000 O   0  0  0  0  0  0  0  0  0  0  0  0
  1  2  1  0
  2  3  1  0
  3  4  2  0
  4  5  1  0
  5  6  1  0
  6  7  1  0
  1  8  2  0
  8  9  1  0
  9 10  1  0
 10 11  1  0
 11  1  1  0
  7  3  1  0
M  END
