
     RDKit          2D

 10 11  0  0  0  0  0  0  0  0999 V2000
   -1.2500   -0.4331    0.0000 C   0  0  0  0  0  0  0  0  0  0  0  0
   -0.2499   -0.4331    0.0000 C   0  0  0  0  0  0  0  0  0  0  0  0
    0.3378   -1.2420    0.0000 N   0  0  0  0  0  0  0  0  0  0  0  0
    1.2889   -0.9330    0.0000 C   0  0  0  0  0  0  0  0  0  0  0  0
    1.2889    0.0671    0.0000 C   0  0  0  0  0  0  0  0  0  0  0  0
    0.3378    0.3759    0.0000 O   0  0  0  0  0  0  0  0  0  0  0  0
   -1.8377   -1.2420    0.0000 N   0  0  0  0  0  0  0  0  0  0  0  0
   -2.7887   -0.9329    0.0000 C   0  0  0  0  0  0  0  0  0  0  0  0
   -2.7887    0.0671    0.0000 C   0  0  0  0  0  0  0  0  0  0  0  0
   -1.8377    0.3760    0.0000 O   0  0  0  0  0  0  0  0  0  0  0  0
  1  2  1  0
  2  3  2  0
  3  4  1  0
  4  5  1  0
  5  6  1  0
  1  7  2  0
  7  8  1  0
  8  9  1  0
  9 10  1  0
 10  1  1  0
  6  2  1  0
M  END
