
     RDKit          2D

 11 12  0  0  0  0  0  0  0  0999 V2000
    1.2990    0.5118    0.0000 C   0  0  0  0  0  0  0  0  0  0  0  0
    0.0000    1.2618    0.0000 C   0  0  0  0  0  0  0  0  0  0  0  0
   -1.2990    0.5118    0.0000 C   0  0  0  0  0  0  0  0  0  0  0  0
   -1.4558   -0.9800    0.0000 N   0  0  0  0  0  0  0  0  0  0  0  0
   -2.9231   -1.2918    0.0000 C   0  0  0  0  0  0  0  0  0  0  0  0
   -3.6731    0.0072    0.0000 C   0  0  0  0  0  0  0  0  0  0  0  0
   -2.6694    1.1219    0.0000 O   0  0  0  0  0  0  0  0  0  0  0  0
    1.4558   -0.9801   -0.0000 N   0  0  0  0  0  0  0  0  0  0  0  0
    2.9230   -1.2920   -0.0000 C   0  0  0  0  0  0  0  0  0  0  0  0
    3.6730    0.0070   -0.0000 C   0  0  0  0  0  0  0  0  0  0  0  0
    2.6694    1.1219    0.0000 O   0  0  0  0  0  0  0  0  0  0  0  0
  1  2  1  0
  2  3  1  0
  3  4  2  0
  4  5  1  0
  5  6  1  0
  6  7  1  0
  1  8  2  0
  8  9  1  0
  9 10  1  0
 10 11  1  0
 11  1  1  0
  7  3  1  0
M  END
